<?xml version="1.0" encoding="UTF-8"?>

<!-- generated on 2026-02-28T10:41:51.469129+01:00 by Eclipse SUMO polyconvert 1.26.0
<polyconvertConfiguration xmlns:xsi="http://www.w3.org/2001/XMLSchema-instance" xsi:noNamespaceSchemaLocation="http://sumo.dlr.de/xsd/polyconvertConfiguration.xsd">

    <input>
        <net-file value="osm.net.xml.gz"/>
        <osm-files value="osm_bbox.osm.xml.gz"/>
        <osm.keep-full-type value="true"/>
        <osm.merge-relations value="1"/>
        <type-file value="${SUMO_HOME}\data\typemap\osmPolyconvert.typ.xml"/>
    </input>

    <output>
        <output-file value="osm.poly.xml.gz"/>
    </output>

    <report>
        <verbose value="true"/>
    </report>

</polyconvertConfiguration>
-->

<additional xmlns:xsi="http://www.w3.org/2001/XMLSchema-instance" xsi:noNamespaceSchemaLocation="http://sumo.dlr.de/xsd/additional_file.xsd">
    <location netOffset="-452122.24,-4502082.65" convBoundary="-2349.50,-5013.41,10103.91,8958.73" origBoundary="14.406151,40.622927,14.552694,40.749084" projParameter="+proj=utm +zone=33 +ellps=WGS84 +datum=WGS84 +units=m +no_defs"/>

    <poly id="10155288" type="amenity.school" color="237,199,199" fill="1" layer="-2.00" shape="4621.677777,5099.266760"/>
    <poly id="10155289" type="building.residential" color="255,230,230" fill="1" layer="-1.00" shape="4265.128405,4648.439713 4264.226648,4653.107367 4261.201221,4668.688530 4254.392754,4695.981123 4278.445404,4702.344843 4282.030557,4698.638298 4291.362941,4640.825796 4275.127332,4636.503050 4273.872655,4640.051591 4267.678871,4638.278554 4266.054982,4643.683107 4265.128405,4648.439713"/>
    <poly id="10155291" type="building.residential" color="255,230,230" fill="1" layer="-1.00" shape="4304.473225,4860.933998 4314.187082,4863.785378 4315.313409,4859.960074 4321.972671,4861.919130 4318.568931,4873.495091 4324.830471,4875.334375 4325.517860,4872.999163 4330.831679,4874.555393 4335.378342,4859.098537 4329.573694,4857.389772 4332.058249,4848.949649 4342.212120,4851.931693 4344.257548,4844.948362 4342.489063,4844.425898 4344.244786,4838.454444 4330.553987,4834.438575 4328.871818,4839.987769 4324.268800,4838.649384 4327.507085,4827.662743 4321.693964,4825.954034 4321.039577,4828.155842 4315.336457,4826.479795 4311.369480,4839.957310 4312.934922,4840.425454 4310.748600,4847.864756 4308.506251,4847.200772 4304.473225,4860.933998"/>
    <poly id="10155292" type="building.residential" color="255,230,230" fill="1" layer="-1.00" shape="5328.084104,4968.565660 5316.129695,4963.772067 5317.727808,4959.644494 5310.194073,4956.845903 5308.581491,4961.395393 5303.909377,4959.745977 5305.297466,4955.819420 5303.915391,4954.905982 5305.901036,4947.656850 5331.614302,4958.155043 5347.580133,4918.600073 5343.026509,4916.994356 5336.069490,4936.704904 5313.013863,4927.146119 5320.038170,4908.867170 5315.915374,4907.270099 5317.743956,4902.086625 5308.305724,4898.610710 5304.654601,4908.555797 5307.566222,4909.582568 5303.130452,4915.269441 5310.920623,4918.588292 5308.734579,4924.772893 5299.919737,4919.528380 5287.188968,4944.311887 5296.550714,4949.186918 5298.429250,4943.881043 5302.256591,4945.513102 5295.633611,4967.475241 5301.049425,4970.663399 5307.236648,4972.859161 5306.122901,4976.018186 5308.137316,4976.728181 5307.357521,4977.731730 5313.274447,4979.929048 5315.407557,4980.716070 5316.920246,4976.422473 5324.335452,4979.177347 5328.084104,4968.565660"/>
    <poly id="10155294" type="building.residential" color="255,230,230" fill="1" layer="-1.00" shape="4362.103277,4212.129268 4360.119136,4220.954963 4362.396304,4221.763071 4359.124737,4238.655520 4373.281272,4241.236715 4374.932005,4231.735827 4385.550057,4233.061194 4383.223487,4246.884264 4394.624528,4249.204129 4395.035319,4247.225774 4403.803567,4248.595309 4408.690763,4249.354839 4425.339426,4251.954837 4426.579168,4247.274129 4409.681620,4244.009535 4413.957211,4218.230564 4432.591991,4220.974360 4432.703821,4219.874723 4433.421720,4219.848318 4437.133316,4197.280805 4435.653586,4197.045249 4436.243997,4192.557058 4419.677339,4189.556923 4416.585757,4208.357633 4406.953877,4206.660117 4406.731974,4207.715995 4403.518510,4207.146476 4407.994887,4179.590195 4406.042811,4179.479520 4406.231889,4175.704130 4391.147388,4173.361426 4389.331388,4184.939133 4386.879808,4184.642677 4383.009103,4208.865173 4386.765936,4209.897734 4385.927284,4216.707459 4362.103277,4212.129268"/>
    <poly id="10155295" type="building.residential" color="255,230,230" fill="1" layer="-1.00" shape="4126.631060,4577.332691 4126.368875,4577.278733 4118.123102,4575.640029 4111.866614,4593.327269 4112.755446,4593.643951 4111.010585,4598.571917 4112.906701,4599.237884 4111.660476,4602.775303 4099.982309,4599.225319 4094.087239,4599.415513 4097.782677,4588.636991 4103.338166,4572.408084 4096.045584,4570.541765 4086.092013,4598.718938 4072.050646,4651.319917 4082.824790,4653.420981 4104.161430,4658.978709 4106.750372,4649.649828 4101.224516,4647.983998 4102.396341,4641.860519 4095.736166,4639.790654 4096.500769,4634.801864 4101.147219,4614.837333 4103.678228,4615.732671 4102.119740,4625.044372 4106.433312,4625.973597 4108.023302,4616.273181 4121.074560,4619.182333 4121.021328,4617.317705 4141.039997,4621.395799 4140.183951,4626.640442 4110.398401,4620.810517 4109.367937,4626.555732 4129.682100,4630.609850 4124.099860,4658.061850 4129.542674,4659.972404 4128.270191,4664.786573 4135.648189,4666.830033 4139.669055,4648.201316 4142.318567,4649.140371 4144.712393,4633.929207 4148.333633,4634.918041 4151.424191,4618.959017 4114.564458,4611.050505 4126.631060,4577.332691"/>
    <poly id="10155296" type="building.residential" color="255,230,230" fill="1" layer="-1.00" shape="4159.593917,4730.996097 4168.613989,4733.618258 4180.808261,4691.452033 4154.536847,4684.158130 4154.993519,4681.380228 4155.156635,4680.391292 4107.006010,4668.641865 4092.737627,4665.595610 4086.779025,4686.500364 4079.044822,4684.214836 4079.866779,4681.790000 4086.476240,4662.391115 4069.851209,4657.937905 4036.761629,4754.832818 4054.512249,4759.678934 4059.757944,4736.802410 4064.058038,4738.320035 4057.943941,4760.047196 4071.961769,4763.605500 4076.589304,4764.788173 4094.156805,4714.275544 4159.593917,4730.996097"/>
    <poly id="10155298" type="building.residential" color="255,230,230" fill="1" layer="-1.00" shape="4112.492888,4284.154064 4114.794183,4273.294974 4136.632968,4277.872971 4138.348475,4269.381820 4129.180556,4267.570922 4130.946551,4257.614161 4141.782537,4260.081281 4148.753160,4223.030013 4112.597510,4215.949903 4110.403660,4224.976721 4114.878487,4225.993809 4111.770014,4243.229539 4081.793264,4236.756990 4082.374096,4233.545420 4083.134745,4229.311512 4084.148878,4223.655201 4079.759567,4222.815240 4081.330242,4215.557123 4093.611862,4218.193255 4095.158716,4212.622609 4073.792048,4207.919835 4056.577115,4283.995607 4061.184778,4284.623349 4062.890840,4277.408832 4078.004843,4280.472248 4069.859613,4318.818222 4100.778211,4324.619113 4104.616560,4305.103398 4100.430362,4304.317731 4105.133822,4282.521242 4112.492888,4284.154064"/>
    <poly id="10156514" type="building.residential" color="255,230,230" fill="1" layer="-1.00" shape="5570.544844,3857.908406 5560.796157,3841.679109 5570.423100,3836.551160 5569.348360,3834.747856 5570.005614,3832.967981 5571.180338,3831.562584 5569.602808,3828.996191 5569.048510,3828.089085 5568.843800,3827.746127 5556.641114,3834.520583 5556.357715,3833.711840 5536.442428,3845.015036 5533.672085,3839.202921 5527.850283,3841.978036 5535.306990,3856.266626 5535.220815,3858.931310 5532.317265,3857.904400 5531.602281,3859.928825 5521.748831,3856.443896 5518.682486,3863.898934 5526.648143,3866.706381 5526.095632,3869.074005 5544.023549,3876.675679 5543.084082,3879.334129 5555.468504,3883.703818 5558.287735,3872.908864 5551.583351,3870.538222 5552.123848,3869.025431 5551.152661,3866.122559 5548.249116,3865.095643 5550.364687,3858.312089 5551.567089,3857.317260 5558.952798,3871.017936 5568.845728,3865.133613 5565.443385,3861.079015 5570.544844,3857.908406"/>
    <poly id="10160210" type="building.residential" color="255,230,230" fill="1" layer="-1.00" shape="3599.616246,2559.784735 3596.972385,2558.512807 3608.616292,2540.149226 3592.552632,2530.076669 3585.562121,2543.794575 3580.000958,2540.741723 3571.903451,2555.853849 3592.360584,2565.877954 3594.943576,2566.861622 3599.616246,2559.784735"/>
    <poly id="10160211" type="building.residential" color="255,230,230" fill="1" layer="-1.00" shape="3558.370748,2522.476745 3555.337630,2528.189570 3547.608681,2542.755583 3569.174694,2554.515833 3571.903451,2555.853849 3580.000958,2540.741723 3577.466200,2539.347042 3571.603371,2536.717828 3575.400354,2530.156790 3566.356267,2523.994300 3564.898868,2526.145456 3558.370748,2522.476745"/>
    <poly id="10160212" type="building.residential" color="255,230,230" fill="1" layer="-1.00" shape="3599.549208,2510.286588 3588.582319,2501.915374 3580.482751,2495.447511 3573.890566,2490.957709 3565.440226,2507.836975 3580.378696,2514.830160 3591.535051,2520.968967 3598.057469,2512.349135 3599.549208,2510.286588"/>
    <poly id="10160213" type="building.yes" color="255,230,230" fill="1" layer="-1.00" shape="3426.055687,2488.255716 3393.814375,2488.704124 3391.633171,2519.533073 3424.968967,2519.855159 3426.055687,2488.255716"/>
    <poly id="10160214" type="building.residential" color="255,230,230" fill="1" layer="-1.00" shape="4709.338399,4132.417695 4741.795659,4142.741444 4745.024053,4132.798544 4743.204873,4132.298480 4754.221899,4094.691474 4739.379682,4090.437313 4738.670932,4092.039951 4699.655882,4088.625773 4696.097006,4128.875862 4709.338399,4132.417695"/>
    <poly id="10160215" type="building.residential" color="255,230,230" fill="1" layer="-1.00" shape="5415.451818,4083.263510 5414.364370,4085.145768 5408.271591,4081.861491 5404.805881,4088.874834 5403.134218,4087.574506 5397.379307,4099.041278 5398.880048,4099.998458 5395.201960,4106.802106 5398.430378,4108.515352 5396.669555,4112.299706 5399.469498,4114.426135 5397.487259,4116.424527 5403.202040,4121.564793 5441.003944,4081.341224 5432.973647,4073.105945 5430.710901,4076.282617 5424.041655,4072.646398 5425.705004,4069.539757 5428.637957,4071.288009 5431.340683,4065.278114 5423.351701,4061.316420 5420.332546,4066.650979 5418.646400,4065.772561 5416.989087,4068.457338 5418.920721,4069.423157 5417.118339,4073.329853 5413.635975,4071.529245 5411.801712,4074.292741 5415.369503,4076.259371 5412.264932,4081.427910 5415.451818,4083.263510"/>
    <poly id="10160216" type="building.residential" color="255,230,230" fill="1" layer="-1.00" shape="4934.141703,3977.555838 4906.886794,3971.408330 4907.183198,3970.074516 4857.368072,3958.851563 4854.353629,3972.223320 4865.274187,3974.679906 4866.492985,3969.244543 4888.461003,3974.190335 4887.175959,3979.859195 4903.696308,3983.571097 4900.459233,3997.898794 4851.065701,3986.506932 4848.018391,4000.034294 4859.048924,4002.523536 4860.251525,3997.210374 4881.804951,4002.058641 4880.520111,4007.760804 4900.381716,4012.230397 4898.849798,4019.032969 4923.592193,4024.606643 4934.141703,3977.555838"/>
    <poly id="10160217" type="building.residential" color="255,230,230" fill="1" layer="-1.00" shape="4476.381567,3979.186331 4521.446586,3985.583422 4527.228203,3932.620921 4465.964606,3924.198267 4462.483738,3957.365691 4465.280836,3957.504740 4465.431556,3965.940486 4477.302954,3967.724892 4476.381567,3979.186331"/>
    <poly id="10160218" type="building.residential" color="255,230,230" fill="1" layer="-1.00" shape="4581.535365,3895.537986 4580.583474,3890.215144 4589.456648,3889.230916 4588.971589,3881.385465 4593.174961,3880.739303 4592.808727,3877.333487 4587.730957,3877.252095 4587.683402,3870.547476 4579.490139,3870.783985 4579.419490,3874.603079 4561.867955,3875.216132 4558.568910,3874.480532 4561.389473,3861.265193 4556.363027,3861.294530 4554.371142,3870.297823 4552.297932,3869.710481 4553.718539,3861.254463 4547.196441,3861.225932 4545.690327,3869.504838 4543.017021,3867.422391 4542.482713,3868.513391 4533.635828,3860.983191 4526.363477,3862.679688 4549.193882,3882.117118 4550.265955,3879.080335 4559.041343,3881.604502 4559.006246,3885.723111 4554.894314,3886.113440 4562.589544,3896.081466 4565.315582,3895.621524 4570.724102,3906.058037 4582.633979,3920.219804 4589.625644,3929.792332 4598.286411,3943.096111 4621.426258,3983.812231 4630.509288,3982.615911 4628.946191,3963.731421 4625.289828,3964.008048 4624.456503,3958.728914 4621.018549,3958.793354 4617.647835,3941.406913 4625.759040,3940.149648 4622.323163,3907.233536 4619.171176,3886.793095 4617.643875,3887.101719 4615.821505,3891.863493 4610.687783,3892.326352 4610.723669,3897.032891 4612.082465,3896.802953 4612.543262,3901.939947 4606.260716,3902.420606 4605.814286,3896.850597 4603.265196,3897.231787 4604.624368,3908.657708 4602.666237,3908.968847 4604.408793,3920.947574 4600.577920,3921.724767 4599.068205,3909.111937 4595.257750,3909.045351 4593.993563,3903.768733 4585.330370,3904.540815 4584.671565,3898.772231 4582.163938,3899.019977 4581.535365,3895.537986"/>
    <poly id="10160219" type="building.residential" color="255,230,230" fill="1" layer="-1.00" shape="4185.031960,3922.449994 4188.436556,3869.356885 4168.625688,3867.908313 4167.582006,3895.821946 4157.923324,3895.390400 4158.690644,3953.942762 4183.938862,3954.893055 4185.031960,3922.449994"/>
    <poly id="10160220" type="building.residential" color="255,230,230" fill="1" layer="-1.00" shape="4226.468530,3922.272771 4224.330728,3922.196538 4224.515199,3907.597863 4224.588678,3899.982262 4224.225359,3899.973298 4224.183090,3894.223317 4224.656361,3894.253836 4224.617880,3889.147681 4224.526158,3869.244435 4203.883277,3868.533318 4201.693136,3931.343598 4205.444843,3931.476932 4204.663523,3953.749794 4217.380391,3954.196711 4217.784112,3942.405254 4224.197498,3942.633949 4224.249385,3941.401451 4228.609453,3941.553420 4229.282281,3922.367230 4226.468530,3922.272771"/>
    <poly id="10160221" type="building.residential" color="255,230,230" fill="1" layer="-1.00" shape="4594.519344,3786.774122 4600.049574,3787.652140 4599.485376,3790.863567 4603.121463,3791.441809 4602.991635,3793.807041 4597.530352,3793.161735 4597.391399,3793.961805 4588.937428,3792.967631 4588.736628,3801.993768 4594.027135,3802.329240 4593.702264,3806.016607 4598.570180,3806.321244 4598.850900,3809.549945 4593.306574,3809.149345 4593.303823,3810.126234 4593.283045,3815.254934 4596.883581,3815.533658 4596.685103,3824.959412 4595.823423,3824.964437 4595.712759,3830.615400 4600.638175,3830.642182 4600.868593,3836.835096 4595.064347,3836.769035 4595.537134,3841.062295 4579.847633,3840.831885 4579.781287,3843.940502 4576.157557,3844.028248 4576.352823,3854.328670 4573.936682,3854.331666 4574.090371,3857.505604 4597.194622,3857.282029 4597.100014,3848.302017 4600.369516,3848.316254 4600.795138,3857.560755 4616.051499,3857.405206 4612.496274,3757.651767 4607.170391,3757.050068 4605.758827,3767.071236 4595.406020,3764.978043 4594.448589,3771.744025 4588.183896,3770.959101 4587.678741,3775.602190 4566.222177,3771.575663 4561.892711,3802.738729 4579.084209,3805.546831 4579.996267,3795.350958 4574.041444,3794.098004 4575.810326,3783.064569 4581.177914,3783.577196 4581.369984,3784.641754 4583.357570,3785.029789 4582.967487,3790.571373 4594.000204,3791.916828 4594.519344,3786.774122"/>
    <poly id="10160222" type="building.residential" color="255,230,230" fill="1" layer="-1.00" shape="4448.948963,3828.686421 4453.078647,3832.769562 4462.826659,3822.466474 4467.024506,3826.649132 4459.932698,3834.661006 4463.843508,3838.878643 4461.686376,3841.277938 4473.302012,3852.743754 4487.742056,3837.229177 4455.172511,3805.116263 4442.673011,3818.754608 4443.455995,3819.737999 4439.099039,3824.459146 4442.470701,3827.492139 4445.065756,3824.857158 4448.948963,3828.686421"/>
    <poly id="10160223" type="building.residential" color="255,230,230" fill="1" layer="-1.00" shape="4465.647569,3750.117018 4462.083135,3761.793730 4449.071332,3757.196409 4447.443862,3760.602783 4448.333396,3772.575365 4450.282841,3775.106046 4456.365118,3780.809585 4457.221933,3779.972011 4459.974833,3782.653406 4456.498243,3787.680215 4458.616185,3790.132208 4456.867655,3793.061953 4461.989977,3797.860845 4469.589800,3790.034717 4465.956443,3787.036544 4471.792885,3778.155054 4464.638563,3775.488297 4469.550190,3761.594644 4480.284679,3765.383855 4478.317443,3771.367600 4492.383386,3774.204881 4491.258248,3782.614779 4496.637470,3783.671217 4497.782818,3775.827343 4504.201591,3776.955416 4502.952402,3790.161592 4504.846222,3790.405844 4504.695378,3792.060747 4508.541372,3792.415701 4507.292179,3805.621877 4509.448397,3805.953403 4509.126991,3811.672204 4508.246597,3811.366525 4505.476900,3833.273531 4519.295188,3847.246432 4551.904118,3847.111507 4566.100324,3849.137805 4567.352572,3848.020415 4569.520319,3835.852367 4575.173642,3837.562210 4579.591823,3820.152549 4581.004158,3814.616101 4566.763838,3812.279209 4567.366707,3811.354322 4561.878342,3810.409479 4557.959335,3835.176082 4540.204096,3832.748749 4533.596458,3832.543116 4523.320427,3833.457899 4525.296527,3831.881140 4519.208362,3826.599411 4520.794283,3816.077669 4522.950498,3816.409198 4523.166150,3818.617002 4535.516119,3819.854768 4536.319117,3815.587363 4539.361773,3815.813814 4538.635475,3823.089093 4545.984630,3824.411583 4547.322251,3816.211368 4550.781378,3816.868324 4551.563585,3809.037679 4549.702851,3808.671114 4549.965559,3805.916577 4552.163302,3806.125764 4553.149556,3798.515944 4549.731947,3797.736636 4550.697781,3790.970598 4552.897991,3791.601602 4553.434217,3785.048988 4555.801637,3785.379294 4559.009017,3757.375407 4526.112328,3753.149354 4527.471051,3745.670566 4488.444921,3740.692324 4486.731400,3751.059407 4483.772546,3750.721479 4483.669018,3751.798864 4465.647569,3750.117018"/>
    <poly id="10160224" type="building.residential" color="255,230,230" fill="1" layer="-1.00" shape="4157.602037,3792.087976 4168.530717,3792.967178 4168.767173,3788.647563 4180.259382,3789.101632 4180.234134,3791.987996 4190.873231,3792.469306 4192.406094,3754.351143 4177.371403,3753.451677 4177.135269,3752.087665 4171.416474,3752.199045 4171.649894,3750.232824 4169.664955,3750.300017 4169.882979,3742.850078 4160.309624,3742.595637 4160.539276,3737.121577 4157.700633,3737.116095 4157.602037,3792.087976"/>
    <poly id="10160225" type="building.residential" color="255,230,230" fill="1" layer="-1.00" shape="4297.192763,3760.673139 4323.493867,3763.860100 4320.931385,3738.931586 4296.781276,3738.074276 4297.192763,3760.673139"/>
    <poly id="10160226" type="building.residential" color="255,230,230" fill="1" layer="-1.00" shape="4584.318476,3693.409127 4542.483235,3679.055691 4539.437841,3688.498068 4537.414490,3687.777228 4527.987092,3716.860925 4531.357230,3718.184442 4530.757578,3721.107459 4524.288787,3720.101764 4523.340954,3732.839941 4536.319974,3734.717883 4535.794561,3740.226958 4613.039774,3750.888200 4614.385884,3713.692613 4600.653713,3715.948430 4600.715977,3726.627054 4604.056611,3727.240323 4603.451293,3734.992223 4598.716297,3734.309380 4598.160896,3741.927780 4594.516401,3741.360689 4595.280699,3734.795648 4588.853457,3733.667545 4589.187263,3731.512040 4578.491468,3730.009214 4579.220960,3724.720968 4568.265208,3723.552698 4567.910987,3726.551986 4565.326299,3726.633674 4564.901062,3729.045033 4552.760915,3727.595076 4553.109073,3717.768819 4538.939339,3718.872819 4547.646811,3693.811836 4555.309161,3696.664421 4551.233121,3709.010122 4562.638077,3713.317278 4565.630054,3704.852095 4567.948883,3705.537915 4568.040377,3712.530897 4578.098099,3711.817267 4584.318476,3693.409127"/>
    <poly id="10160227" type="building.residential" color="255,230,230" fill="1" layer="-1.00" shape="4515.261932,3715.059220 4516.880299,3710.087699 4504.494891,3705.708637 4505.348622,3702.895140 4492.703577,3698.906144 4480.414049,3695.037199 4479.516873,3694.753823 4476.563572,3715.596231 4470.558758,3714.476861 4468.351872,3728.598911 4512.973350,3734.010589 4515.261932,3715.059220"/>
    <poly id="10160228" type="building.residential" color="255,230,230" fill="1" layer="-1.00" shape="4312.271383,3649.598582 4286.626844,3659.018334 4286.735426,3651.613448 4281.682448,3651.465512 4281.673767,3652.864267 4281.508235,3672.147369 4286.609800,3671.939793 4286.509717,3675.037511 4295.722534,3674.306259 4295.830153,3678.246419 4295.950522,3682.919159 4284.371424,3683.519998 4284.034955,3688.084412 4281.406646,3687.933338 4281.164490,3709.992098 4284.154489,3709.874628 4284.086133,3706.866706 4292.770664,3706.815703 4292.811913,3709.524062 4295.515137,3709.485987 4295.830689,3701.358331 4300.030645,3701.555687 4301.796305,3730.329758 4320.685574,3731.595384 4312.271383,3649.598582"/>
    <poly id="10160229" type="building.residential" color="255,230,230" fill="1" layer="-1.00" shape="4317.459264,3618.030697 4315.324113,3618.420656 4316.704401,3636.240476 4318.021778,3636.143938 4319.851408,3657.113755 4326.172637,3706.386517 4328.200089,3730.840836 4350.705323,3730.686618 4377.658848,3728.419442 4374.292156,3684.446616 4359.053975,3643.096577 4351.833824,3624.911365 4350.250598,3625.775413 4343.931798,3611.470210 4345.423596,3610.862016 4335.154371,3585.623480 4313.045107,3594.300845 4313.273075,3602.913745 4316.082189,3602.197906 4317.459264,3618.030697"/>
    <poly id="10160230" type="building.residential" color="255,230,230" fill="1" layer="-1.00" shape="4390.352184,3622.409920 4399.117277,3644.748926 4402.874708,3642.950785 4407.491502,3640.747984 4400.222591,3658.929300 4396.760591,3660.681309 4397.646801,3663.418020 4390.791435,3681.519219 4385.746279,3681.260158 4366.020420,3632.421148 4378.948340,3626.983676 4390.352184,3622.409920"/>
    <poly id="10160231" type="building.residential" color="255,230,230" fill="1" layer="-1.00" shape="4538.630965,3664.613818 4559.450697,3602.893844 4549.714968,3599.453912 4547.570673,3605.516375 4522.435549,3596.638185 4524.402870,3590.654454 4513.187259,3586.978996 4492.213786,3648.355875 4503.210898,3652.243494 4505.361126,3645.759151 4530.808489,3654.602156 4528.572789,3660.920478 4538.630965,3664.613818"/>
    <poly id="10160232" type="building.residential" color="255,230,230" fill="1" layer="-1.00" shape="4194.128974,3613.582533 4182.127500,3614.208217 4182.309970,3617.937020 4168.002698,3618.665108 4167.811576,3614.903053 4154.070256,3615.616734 4156.274292,3658.475140 4196.374823,3656.407398 4194.128974,3613.582533"/>
    <poly id="10160233" type="building.residential" color="255,230,230" fill="1" layer="-1.00" shape="4452.247403,3634.380548 4459.920559,3613.066489 4433.217515,3603.354110 4424.838425,3623.850868 4452.247403,3634.380548"/>
    <poly id="10160234" type="building.residential" color="255,230,230" fill="1" layer="-1.00" shape="4207.305532,3515.440322 4212.859165,3560.465890 4215.204448,3600.104235 4240.400655,3599.190104 4239.800356,3587.615475 4232.297574,3587.515278 4231.679359,3577.206248 4239.321006,3576.495268 4239.353637,3582.045488 4250.540070,3582.168443 4249.801359,3575.789812 4245.526797,3575.848240 4244.950619,3569.812780 4231.876883,3573.441908 4231.865134,3571.443829 4248.199366,3566.274722 4249.198143,3569.465888 4303.927290,3556.544968 4302.514724,3550.503313 4308.992359,3548.666955 4309.881764,3553.379583 4314.176796,3552.488510 4316.082125,3557.561504 4290.629379,3568.045790 4297.025393,3582.528108 4326.149576,3565.672631 4313.584975,3530.823181 4301.542023,3491.308347 4299.022601,3489.569208 4295.188316,3488.359529 4207.305532,3515.440322"/>
    <poly id="10160235" type="building.residential" color="255,230,230" fill="1" layer="-1.00" shape="4344.374632,3504.033872 4336.490817,3503.802594 4323.387344,3506.710179 4316.510799,3509.681149 4321.436128,3525.493116 4348.127791,3587.934062 4373.235150,3577.618509 4362.753536,3552.170266 4357.466235,3553.855287 4352.487825,3536.178670 4348.813337,3537.721031 4346.511857,3531.362657 4351.332698,3529.369541 4352.806355,3532.868758 4357.964214,3530.718259 4356.979838,3527.094062 4358.211711,3526.820420 4359.679927,3525.068983 4360.822586,3518.224179 4368.889978,3519.508985 4368.396956,3523.319456 4370.039354,3523.898172 4369.389470,3529.774315 4371.842307,3548.986557 4373.068202,3549.134784 4375.647700,3561.130752 4380.055223,3570.784837 4385.687914,3568.931295 4377.727540,3513.817972 4352.654981,3509.935353 4353.838927,3505.810006 4344.374632,3504.033872"/>
    <poly id="10160237" type="building.residential" color="255,230,230" fill="1" layer="-1.00" shape="4725.029848,3541.718542 4725.017856,3542.562273 4731.956772,3543.032573 4732.535221,3534.992223 4731.646398,3527.426636 4729.998138,3520.020874 4727.038533,3512.300813 4722.536441,3503.746060 4705.793682,3482.330047 4702.907771,3487.286694 4686.295079,3467.912517 4681.979225,3472.500065 4673.983054,3490.707531 4671.798824,3489.932087 4670.825274,3489.593629 4668.358991,3496.967824 4680.984167,3501.856403 4684.463500,3497.251521 4685.353844,3496.358275 4690.208629,3491.467871 4696.326483,3497.471119 4694.828599,3501.398420 4694.412453,3502.477620 4687.207971,3499.933048 4678.762981,3519.408614 4662.507608,3513.519898 4659.515440,3521.985038 4675.693729,3527.696583 4676.500024,3525.427325 4678.371015,3526.093585 4684.813522,3528.365062 4690.773511,3530.472839 4690.997930,3529.838787 4725.029848,3541.718542"/>
    <poly id="10160238" type="building.residential" color="255,230,230" fill="1" layer="-1.00" shape="4180.615343,3460.670529 4176.970658,3429.964911 4143.068652,3431.774200 4144.326802,3463.204317 4150.002488,3513.102382 4187.675986,3509.072956 4180.615343,3460.670529"/>
    <poly id="10160239" type="building.residential" color="255,230,230" fill="1" layer="-1.00" shape="4629.170754,3359.967810 4626.837586,3352.488357 4621.930024,3336.731600 4613.375245,3338.824004 4620.707561,3364.723868 4628.337451,3386.603512 4636.038766,3384.493894 4641.580519,3394.552250 4640.511136,3395.169024 4643.828336,3401.887895 4641.379634,3403.578380 4645.048900,3411.272073 4642.711733,3414.704735 4645.231830,3418.020301 4653.644656,3426.385723 4676.200980,3445.014781 4695.395719,3459.467355 4713.535795,3478.532947 4734.594233,3502.599187 4739.908727,3495.397175 4740.835826,3487.743328 4739.846197,3474.461409 4735.902811,3479.179970 4725.596621,3467.728337 4719.990420,3472.711893 4715.839984,3467.973778 4717.780558,3466.075356 4716.947723,3465.236537 4719.065390,3463.281582 4714.930109,3459.697863 4717.228216,3456.809390 4721.954489,3460.323069 4725.800433,3456.282216 4723.381060,3454.298136 4725.756175,3451.575730 4722.920318,3449.161139 4726.701194,3444.099391 4720.681416,3438.983612 4724.249862,3433.712182 4715.340684,3427.147899 4716.085031,3425.844775 4711.249672,3421.010738 4712.043999,3419.585215 4696.733431,3406.220083 4652.249852,3374.020217 4645.027553,3384.397133 4640.753226,3381.613523 4639.669077,3378.245192 4642.569752,3377.273626 4638.593738,3364.786172 4637.530342,3364.981080 4636.617161,3361.955878 4634.995849,3362.098532 4635.022206,3360.821785 4629.790679,3361.962345 4629.170754,3359.967810"/>
    <poly id="10160240" type="building.residential" color="255,230,230" fill="1" layer="-1.00" shape="4498.853653,3479.129509 4492.946138,3477.343502 4484.002428,3493.802788 4514.365900,3502.394987 4516.731845,3498.118453 4513.305645,3497.339209 4517.541151,3490.587372 4520.326455,3491.570175 4523.126787,3486.447443 4498.853653,3479.129509"/>
    <poly id="10160241" type="building.residential" color="255,230,230" fill="1" layer="-1.00" shape="4142.891076,3394.465383 4170.063746,3390.475553 4159.640670,3324.919982 4145.855433,3230.788526 4117.355618,3239.060076 4120.296077,3254.872511 4129.183925,3312.166962 4131.259052,3328.817064 4136.871363,3363.629468 4159.415983,3361.365298 4161.058881,3369.192802 4145.326418,3371.883065 4145.512597,3373.369478 4139.513198,3374.659219 4142.891076,3394.465383"/>
    <poly id="10160242" type="building.residential" color="255,230,230" fill="1" layer="-1.00" shape="4194.573257,3205.269524 4198.446597,3203.037670 4185.214892,3185.676153 4174.118723,3193.811765 4178.606649,3201.256195 4178.175996,3204.167144 4171.583909,3208.135642 4167.483829,3200.555723 4164.353072,3195.456681 4172.310503,3190.913996 4168.720991,3183.952716 4165.734638,3178.986033 4169.728551,3177.141983 4164.582102,3166.915131 4138.088905,3120.025919 4121.570602,3131.390593 4136.474232,3170.055717 4155.000382,3227.049186 4162.013235,3258.667419 4160.261438,3259.610204 4163.887547,3277.094842 4164.750257,3278.688279 4165.668771,3279.715247 4167.311239,3280.293919 4171.901850,3279.356622 4208.772873,3265.097092 4207.413392,3260.920081 4216.422896,3257.137209 4219.448343,3265.889061 4212.430209,3269.238384 4222.569980,3292.434960 4220.008764,3293.660012 4219.187593,3291.944215 4215.949913,3293.073340 4214.115499,3288.588298 4205.182290,3290.972021 4208.997753,3311.941223 4221.371672,3309.914696 4219.959753,3305.438269 4227.273356,3302.053913 4236.724829,3323.156501 4229.251245,3326.630595 4234.229516,3339.900105 4225.749192,3344.579011 4224.410875,3341.123426 4220.561836,3343.166411 4220.916968,3344.651832 4226.920901,3361.367660 4263.704397,3343.767565 4253.198475,3317.176235 4247.559654,3319.451741 4221.826068,3260.757601 4223.492342,3259.637720 4214.469213,3238.121899 4201.646841,3218.515581 4194.573257,3205.269524"/>
    <poly id="10160243" type="building.residential" color="255,230,230" fill="1" layer="-1.00" shape="4247.639706,3236.761281 4251.876798,3205.853908 4243.936034,3204.612884 4214.865116,3202.008612 4213.110242,3198.122548 4208.056383,3200.749867 4226.943706,3240.246498 4247.639706,3236.761281"/>